data_image0
_chemical_formula_structural       W2Te4
_chemical_formula_sum              "W2 Te4"
_cell_length_a       3.571
_cell_length_b       3.571
_cell_length_c       14.120000000000001
_cell_angle_alpha    90.0
_cell_angle_beta     90.0
_cell_angle_gamma    119.99999999999999

_space_group_name_H-M_alt    "P 1"
_space_group_IT_number       1

loop_
  _space_group_symop_operation_xyz
  'x, y, z'

loop_
  _atom_site_type_symbol
  _atom_site_label
  _atom_site_symmetry_multiplicity
  _atom_site_fract_x
  _atom_site_fract_y
  _atom_site_fract_z
  _atom_site_occupancy
  W   W1        1.0  0.3333333333333335  0.6666666666666665  0.2706171968359305  1.0000
  W   W2        1.0  0.6666666666666667  0.3333333333333332  0.7706171968359304  1.0000
  Te  Te1       1.0  0.3333333333333335  0.6666666666666665  0.8854455603666086  1.0000
  Te  Te2       1.0  0.6666666666666667  0.3333333333333332  0.5939941006413386  1.0000
  Te  Te3       1.0  0.3333333333333336  0.6666666666666666  0.09399410064133869  1.0000
  Te  Te4       1.0  0.6666666666666667  0.3333333333333332  0.3854455603666085  1.0000
